
! Generated by mosdef_cassandra version 0.3.1 on 2022-03-24 17:27:48.777046

# Run_Name
nvt_spe.out
!------------------------------------------------------------------------------

# Sim_Type
nvt
!------------------------------------------------------------------------------

# Nbr_Species
1
!------------------------------------------------------------------------------

# VDW_Style
lj cut_tail 14.0
!------------------------------------------------------------------------------

# Charge_Style
none
!------------------------------------------------------------------------------

# Mixing_Rule
lb

!------------------------------------------------------------------------------

# Seed_Info
16486218 39054280
!------------------------------------------------------------------------------

# Rcutoff_Low
1.0
!------------------------------------------------------------------------------

# Pair_Energy
true
!------------------------------------------------------------------------------

# Molecule_Files
species1.mcf 300
!------------------------------------------------------------------------------

# Box_Info
1
cubic
40.55

!------------------------------------------------------------------------------

# Temperature_Info
372.0
!------------------------------------------------------------------------------

# Move_Probability_Info

# Prob_Translation
1.0
0.0 
!------------------------------------------------------------------------------

# Done_Probability_Info
!------------------------------------------------------------------------------

# CBMC_Info
kappa_ins 10
kappa_dih 10
rcut_cbmc 6.0
!------------------------------------------------------------------------------

# Start_Type
read_config 300 box1.in.xyz
!------------------------------------------------------------------------------

# Run_Type
production 1000 
!------------------------------------------------------------------------------

# Simulation_Length_Info
units steps
prop_freq 1
coord_freq 1
run 1
!------------------------------------------------------------------------------

# Property_Info 1
energy_total
volume
nmols
pressure
density
mass_density
energy_angle
energy_dihedral
energy_intravdw
energy_intraq
energy_inter
energy_intervdw
energy_lrc
energy_interq
energy_recip
energy_self
enthalpy

# Fragment_Files
species1/frag1/frag1.dat  1
species1/frag2/frag2.dat  2
species1/frag3/frag3.dat  3
!---------------------------------------------------------one line per fragment

END
